201
Fragment of the myoglobin protein (4DC7 structure in PDB)
N        -22.81300      -15.68100        8.13800
C        -22.50900      -16.60700        9.21500
C        -21.10200      -16.40200        9.74500
O        -20.85800      -16.48100       10.95200
N        -20.16700      -16.13700        8.84000
C        -18.78500      -15.91400        9.24200
C        -18.65900      -14.61600       10.03600
O        -17.95200      -14.57000       11.03900
C        -17.87000      -15.91500        8.01200
C        -17.82800      -17.28500        7.33600
C        -17.01200      -17.31700        6.06100
O        -17.10100      -16.36300        5.26100
O        -16.29100      -18.31700        5.84600
N        -19.35100      -13.56200        9.61000
C        -19.28500      -12.31200       10.35600
C        -19.84800      -12.50600       11.76200
O        -19.32600      -11.95100       12.72600
C        -20.05100      -11.19200        9.64200
C        -19.25400      -10.52100        8.55700
C        -19.57100      -10.44400        7.23300
C        -17.99500       -9.84600        8.70700
C        -17.61000       -9.38800        7.42600
C        -17.15600       -9.58500        9.79900
N        -18.58900       -9.76500        6.54500
C        -16.41900       -8.68500        7.20600
C        -15.96700       -8.88300        9.57900
C        -15.61400       -8.44300        8.29000
N        -20.91100      -13.29500       11.88600
C        -21.50100      -13.53500       13.19700
C        -20.47900      -14.23000       14.09100
O        -20.39400      -13.95300       15.28800
C        -22.76400      -14.39000       13.07100
C        -23.41100      -14.70800       14.40800
C        -24.74400      -15.40900       14.26200
N        -25.77800      -14.84100       14.87200
O        -24.84500      -16.45400       13.61500
N        -19.69800      -15.13400       13.50500
C        -18.66000      -15.83300       14.25200
C        -17.58800      -14.84000       14.69300
O        -17.14300      -14.86000       15.83800
C        -18.02000      -16.91100       13.37900
C        -18.88600      -18.12800       13.16200
C        -18.28200      -19.36300       13.78400
N        -17.94400      -20.33700       12.94800
O        -18.10700      -19.43900       15.00300
N        -17.16700      -13.98100       13.77100
C        -16.15500      -12.97600       14.07100
C        -16.58200      -12.10900       15.25200
O        -15.81500      -11.91300       16.19500
C        -15.90100      -12.04200       12.85900
C        -14.97600      -10.89800       13.26300
C        -15.29100      -12.83200       11.70700
N        -17.80900      -11.59900       15.20400
C        -18.28100      -10.72800       16.26800
C        -18.56800      -11.46600       17.57400
O        -18.56200      -10.86300       18.64600
C        -19.49400       -9.92700       15.77800
C        -19.11900       -9.04500       14.57500
C        -20.30700       -8.19200       14.17200
C        -17.92800       -8.14800       14.92700
N        -18.80300      -12.77100       17.49400
C        -19.03100      -13.54100       18.71000
C        -17.67300      -13.69100       19.39700
O        -17.55000      -13.52500       20.60900
C        -19.61800      -14.91800       18.39200
C        -19.88200      -15.73100       19.64300
N        -20.92800      -15.36600       20.37100
O        -19.14600      -16.66400       19.96100
N        -16.65400      -14.00500       18.60700
C        -15.30100      -14.13400       19.13300
C        -14.87700      -12.79100       19.72700
O        -14.26300      -12.73400       20.80000
C        -14.30000      -14.52200       18.01300
C        -12.86400      -14.40900       18.52100
C        -14.57900      -15.93900       17.53900
N        -15.21100      -11.70400       19.03700
C        -14.82800      -10.38300       19.51400
C        -15.40600      -10.07400       20.89100
O        -14.83900       -9.28400       21.64500
C        -15.23500       -9.30300       18.51300
C        -14.50500       -8.02400       18.75400
C        -15.00800       -6.87900       19.30100
C        -13.11600       -7.78300       18.51700
C        -12.84100       -6.46500       18.94800
C        -12.07400       -8.55400       17.98300
N        -14.01300       -5.93600       19.42200
C        -11.56500       -5.89800       18.86300
C        -10.79900       -7.98900       17.89700
C        -10.56100       -6.67200       18.33700
N        -16.53300      -10.69800       21.22000
C        -17.13200      -10.48700       22.52600
C        -16.15500      -10.89500       23.61700
O        -16.16500      -10.33200       24.71400
N        -15.30400      -11.87500       23.31800
C        -14.30900      -12.34000       24.28100
C        -13.29600      -11.23300       24.53400
O        -12.91100      -10.96500       25.67400
C        -13.57900      -13.57900       23.74800
C        -14.44900      -14.81300       23.62100
C        -13.65700      -15.98800       23.06000
C        -14.45700      -17.28000       23.14400
N        -15.79900      -17.15000       22.52000
H        -23.76331      -15.84572        7.80607
H        -22.15556      -15.82357        7.37129
H        -22.73361      -14.72345        8.48034
H        -22.59996      -17.60819        8.84861
H        -23.19775      -16.42953       10.01440
H        -20.41058      -16.09078        7.88723
H        -18.47572      -16.71319        9.88274
H        -18.23282      -15.19355        7.31002
H        -16.87894      -15.67333        8.33495
H        -17.40514      -17.98699        8.02397
H        -18.83438      -17.52835        7.06604
H        -19.90305      -13.62633        8.79739
H        -18.25607      -12.02546       10.41997
H        -20.93391      -11.60990        9.20527
H        -20.27670      -10.44629       10.37540
H        -20.42446      -10.83798        6.80708
H        -17.41079       -9.90463       10.74660
H        -18.59067       -9.58081        5.57788
H        -16.15635       -8.36062        6.26217
H        -15.33914       -8.68468       10.37366
H        -14.73020       -7.92697        8.15721
H        -21.30161      -13.71932       11.08812
H        -21.77625      -12.59768       13.63354
H        -22.50419      -15.31085       12.59201
H        -23.47312      -13.82540       12.50243
H        -23.56263      -13.79257       14.94082
H        -22.75496      -15.36944       14.93432
H        -26.67084      -15.25154       14.81258
H        -25.65164      -14.00941       15.38360
H        -19.82364      -15.33433       12.54932
H        -19.10219      -16.29195       15.11150
H        -17.79940      -16.48182       12.42399
H        -17.14495      -17.24525       13.89617
H        -18.99909      -18.28967       12.11035
H        -19.83286      -17.95000       13.62748
H        -18.10207      -20.23338       11.98181
H        -17.53523      -21.16305       13.29412
H        -17.54750      -14.02436       12.86404
H        -15.25745      -13.50843       14.30727
H        -16.83510      -11.63122       12.53710
H        -14.03721      -11.29597       13.58733
H        -15.42291      -10.34284       14.06111
H        -14.81914      -10.25285       12.42391
H        -14.35521      -13.24858       12.01628
H        -15.13330      -12.18130       10.87236
H        -15.95628      -13.62069       11.42366
H        -18.39964      -11.81185       14.44566
H        -17.48865      -10.04935       16.50571
H        -20.26797      -10.60606       15.48690
H        -19.83090       -9.29550       16.57336
H        -18.84496       -9.67586       13.75535
H        -20.58502       -7.55905       14.98869
H        -21.13026       -8.82549       13.91541
H        -20.04365       -7.58982       13.32765
H        -18.19048       -7.51188       15.74636
H        -17.66974       -7.54894       14.07887
H        -17.09195       -8.75669       15.20162
H        -18.82305      -13.21640       16.61624
H        -19.73503      -13.04084       19.34173
H        -18.92761      -15.45226       17.77327
H        -20.55319      -14.76910       17.89385
H        -21.49155      -14.61299       20.08010
H        -21.14127      -15.84794       21.20256
H        -16.81511      -14.15365       17.64722
H        -15.29481      -14.90274       19.87724
H        -14.42335      -13.84860       17.19067
H        -12.72352      -15.07711       19.34489
H        -12.67648      -13.40501       18.83997
H        -12.18603      -14.66572       17.73401
H        -14.45763      -16.61887       18.35628
H        -13.89446      -16.19495       16.75747
H        -15.58131      -16.00067       17.16959
H        -15.72005      -11.79330       18.19907
H        -13.76212      -10.38548       19.60778
H        -15.01537       -9.64656       17.52374
H        -16.28209       -9.11675       18.63051
H        -15.99111       -6.74065       19.58274
H        -12.24516       -9.51910       17.66004
H        -14.12488       -5.02939       19.78914
H        -11.38529       -4.93374       19.18382
H        -10.02148       -8.54367       17.50606
H         -9.60930       -6.27999       18.26204
H        -16.96314      -11.30551       20.57568
H        -18.02113      -11.07664       22.60768
H        -17.37280       -9.45061       22.63916
H        -15.34652      -12.29508       22.42864
H        -14.80796      -12.59781       25.19176
H        -13.18649      -13.34548       22.78037
H        -12.81759      -13.81488       24.46180
H        -14.82620      -15.07548       24.58729
H        -15.25307      -14.59405       22.94986
H        -13.41838      -15.79102       22.03571
H        -12.76482      -16.10319       23.63934
H        -13.91613      -18.05370       22.64026
H        -14.59685      -17.51337       24.17883
H        -15.69359      -16.92701       21.53027
H        -16.31849      -16.40429       22.98308
H        -16.30627      -18.02944       22.61824
O        -12.64006      -10.43422       23.70702
